*Heading
** Job name: strip Model name: Model-1
** Generated by: Abaqus/CAE 2021
*Preprint, echo=NO, model=NO, history=NO, contact=NO
**
** PARTS
**
*Part, name=Part-1
*Node
      1,           0.,   9.60000038
      2,           0.,   9.19999981
      3,           0.,   8.80000019
      4,           0.,   8.39999962
      5,           0.,           8.
      6,           0.,    7.5999999
      7,           0.,           7.
      8,           0.,    6.5999999
      9,           0.,   6.19999981
     10,           0.,   5.80000019
     11,           0.,    5.4000001
     12,           0.,           5.
     13,           0.,    4.5999999
     14,           0.,   4.19999981
     15,           0.,   3.79999995
     16,           0.,    3.4000001
     17,           0.,           3.
     18,           0.,    2.5999999
     19,           0.,           2.
     20,           0.,   1.60000002
** ... 2658 like lines cut
*Element, type=CPE3
   1,  913,  626,    1
   2,  810,  729,  626
   3,  905,  811,  728
   4,  812,   94,  727
   5,  813,   93,  726
   6,  783,   92,  725
   7,  814,  789,   91
   8,  786,   90,  723
   9,  942,  788,  859
  10,  954,  787,  858
  11,  857,   87,  720
  12, 1153, 1078,  107
  13,  898,  815,  717
  14, 1081, 1029,  109
  15, 1163, 1083,  133
  16, 1427,  157, 1341
  17, 1679,  181, 1557
  18, 2270,  227, 2230
  19, 2163, 2127,  229
  20, 2038, 1956,  253
** ... 5134 like lines cut
*Nset, nset=Set-1, generate
    1,  2678,     1
*Elset, elset=Set-1, generate
    1,  5154,     1
*Nset, nset=ALL, generate
    1,  2678,     1
*Elset, elset=ALL, generate
    1,  5154,     1
*Nset, nset=EDGE
   1,   2,   3,   4,   5,   6,   7,   8,   9,  10,  11,  12,  13,  14,  15,  16
  17,  18,  19,  20,  21,  22,  23,  24,  25,  26,  27,  28,  29,  30,  31,  32
  33,  34,  35,  36,  37,  38,  39,  40,  41,  42,  43,  44,  45,  46,  47,  48
  49,  50,  51,  52,  53,  54,  55,  56,  57,  58,  59,  60,  61,  62,  63,  64
  65,  66,  67,  68,  69,  70,  71,  72,  73,  74,  75,  76,  77,  78,  79,  80
  81,  82,  83,  84,  85,  86,  87,  88,  89,  90,  91,  92,  93,  94,  95,  96
 626, 627, 628, 629, 630, 631, 632, 633, 634, 635, 636, 637, 638, 639, 640, 641
 642, 643, 644, 645, 646, 647, 648, 649, 650, 651, 652, 653, 654, 655, 656, 657
 658, 659, 660, 661, 662, 663, 664, 665, 666, 667, 668, 669, 670, 671, 672, 673
 674, 675, 676, 677, 678, 679, 680, 681, 682, 683, 684, 685, 686, 687, 688, 689
 690, 691, 692, 693, 694, 695, 696, 697, 698, 699, 700, 701, 702, 703, 704, 705
 706, 707, 708, 709, 710, 711, 712, 713, 714, 715, 716, 717, 718, 719, 720, 721
 722, 723, 724, 725, 726, 727, 728, 729
*Elset, elset=EDGE
    1,    4,    5,    6,    8,   11,   39,   41,   65,   90,   93,   94,   95,   96,  108,  109
  157,  179,  200,  220,  239,  257,  274,  290,  305,  319,  332,  344,  355,  365,  374,  382
  389,  395,  400,  404,  407,  495,  514,  532,  549,  604,  615,  625,  634,  636,  642,  644
  651,  654,  657,  668,  670, 1160, 1161, 1162, 1173, 1174, 1175, 1178, 1186, 1187, 1188, 1199
 1200, 1201, 1204, 1212, 1213, 1214, 1225, 1226, 1227, 1230, 1245, 1247, 1248, 1249, 1250, 1251
 1252, 1253, 1256, 1258, 1260, 1262, 1264, 1266, 1274, 1276, 1278, 1288, 1290, 1292, 1294, 1298
 1304, 1306, 1308, 1310, 1311, 1313, 1316, 1317, 1319, 1321, 1329, 1331, 1340, 1341, 1350, 1352
 1353, 1358, 1375, 1383, 1386, 1388, 1390, 1392, 1394, 1396, 1398, 1400, 1402, 1404, 1406, 1408
 1409, 1411, 1418, 1420, 1428, 1430, 1432, 1434, 1436, 1438, 1440, 1442, 1444, 1446, 1448, 1450
 1451, 1455, 1479, 1484, 1492, 1494, 1496, 1498, 1500, 1502, 1504, 1506, 1509, 1514, 1515, 1519
 1521, 1523, 1525, 1527, 1529, 1531, 1533, 1544, 1546, 1548, 1550, 1552, 1554, 1556, 1558, 1560
 1562, 1570, 1572, 1573, 1576, 1578, 1580, 1582, 1584, 1586, 1591, 1593, 1605, 1607, 1614, 1616
 1620, 1622, 1631, 1633
** Section: Section-1
*Solid Section, elset=Set-1, material=Material-1
,
*End Part
**  
**
** ASSEMBLY
**
*Assembly, name=Assembly
**  
*Instance, name=Part-1-1, part=Part-1
*End Instance
**  
*Nset, nset=EDGE, instance=Part-1-1, generate
    1,  2678,     1
*Elset, elset=EDGE, instance=Part-1-1, generate
    1,  5154,     1
*Nset, nset=Set-1, instance=Part-1-1
  83,  84,  85,  86,  87, 714, 715, 716, 717, 718, 719
*Elset, elset=Set-1, instance=Part-1-1
   39,  604,  670, 1245, 1258, 1428, 1498, 1509, 1591, 1593
*Nset, nset=Set-2, instance=Part-1-1
   1,   2,   3,   4,   5,   6,   7,   8,   9,  10,  11,  12,  13,  14,  15,  16
  17,  18,  19,  20,  21,  22,  23,  24,  25,  49,  50,  51,  52,  53,  54,  55
  56,  57,  58,  59,  60,  61,  62,  63,  64,  65,  66,  67,  68,  69,  70,  71
  72,  73, 626, 627, 628, 629, 630, 631, 632, 633, 634, 635, 636, 637, 638, 639
 640, 641, 642, 643, 644, 645, 646, 647, 648, 649, 650, 651, 678, 679, 680, 681
 682, 683, 684, 685, 686, 687, 688, 689, 690, 691, 692, 693, 694, 695, 696, 697
 698, 699, 700, 701, 702, 703
*Elset, elset=Set-2, instance=Part-1-1
    1,   41,   65,   93,   94,   95,   96,  108,  109,  495,  514,  532,  549,  636,  644,  651
  657, 1160, 1161, 1162, 1173, 1174, 1175, 1178, 1204, 1212, 1213, 1214, 1225, 1226, 1227, 1230
 1256, 1260, 1264, 1266, 1274, 1276, 1278, 1304, 1308, 1311, 1313, 1316, 1317, 1319, 1321, 1329
 1331, 1350, 1352, 1386, 1388, 1390, 1392, 1402, 1404, 1406, 1408, 1411, 1430, 1432, 1434, 1436
 1438, 1440, 1442, 1444, 1446, 1448, 1450, 1451, 1484, 1492, 1494, 1496, 1500, 1502, 1504, 1506
 1519, 1521, 1523, 1525, 1527, 1529, 1531, 1533, 1562, 1570, 1572, 1573, 1576, 1578, 1580, 1582
 1584, 1586, 1614, 1616
*Nset, nset=Set-3, instance=Part-1-1
  25,  26,  27,  28,  29,  30,  31,  32,  33,  34,  35,  36,  37,  38,  39,  40
  41,  42,  43,  44,  45,  46,  47,  48,  49, 652, 653, 654, 655, 656, 657, 658
 659, 660, 661, 662, 663, 664, 665, 666, 667, 668, 669, 670, 671, 672, 673, 674
 675, 676, 677
*Elset, elset=Set-3, instance=Part-1-1
   90,  157,  179,  200,  220,  239,  257,  274,  290,  305,  319,  332,  344,  355,  365,  374
  382,  389,  395,  400,  404,  407, 1178, 1186, 1187, 1188, 1199, 1200, 1201, 1204, 1262, 1340
 1341, 1383, 1394, 1396, 1398, 1400, 1409, 1455, 1479, 1544, 1546, 1548, 1550, 1552, 1554, 1556
 1558, 1560
*End Assembly
** 
** MATERIALS
** 
*Material, name=Material-1
*Density
1.,
*Elastic
5000., 0.3
** 
** BOUNDARY CONDITIONS
** 
** Name: BC-2 Type: Displacement/Rotation
*Boundary
Set-2, 1, 1
** Name: BC-3 Type: Displacement/Rotation
*Boundary
Set-3, 1, 1
Set-3, 2, 2
** ----------------------------------------------------------------
** 
** STEP: Step-1
** 
*Step, name=Step-1, nlgeom=NO
*Static
1., 1., 1e-05, 1.
** 
** BOUNDARY CONDITIONS
** 
** Name: BC-1 Type: Displacement/Rotation
*Boundary
Set-1, 1, 1
Set-1, 2, 2, -1.
** 
** OUTPUT REQUESTS
** 
*Restart, write, frequency=0
** 
** FIELD OUTPUT: F-Output-1
** 
*Output, field
*Node Output
COORD, U
*Element Output, directions=YES
S, 
** 
** FIELD OUTPUT: F-Output-2
** 
*Node Output, nset=Part-1-1.ALL
COORD, U
*Element Output, elset=Part-1-1.ALL, directions=YES
S, 
** 
** HISTORY OUTPUT: H-Output-1
** 
*Output, history, variable=PRESELECT
*End Step
